Version 4
SHEET 1 1836 680
WIRE 960 -288 944 -288
WIRE 976 -288 960 -288
WIRE 960 -240 960 -288
WIRE 960 -240 864 -240
WIRE 1072 -240 960 -240
WIRE 368 -192 352 -192
WIRE 384 -192 368 -192
WIRE 752 -176 672 -176
WIRE 1264 -176 1184 -176
WIRE 368 -144 368 -192
WIRE 256 -80 224 -80
WIRE 224 -16 224 -80
WIRE 224 -16 208 -16
WIRE 416 -16 368 -16
WIRE 224 48 224 -16
WIRE 256 48 224 48
WIRE 672 48 672 -176
WIRE 672 48 656 48
WIRE 864 48 864 16
WIRE 960 48 864 48
WIRE 1072 48 1072 16
WIRE 1072 48 960 48
WIRE 1264 48 1264 -176
WIRE 1280 48 1264 48
WIRE 960 64 960 48
WIRE 960 64 944 64
WIRE 976 64 960 64
WIRE 864 80 864 48
WIRE 1072 80 1072 48
WIRE 368 144 368 112
WIRE 672 272 672 48
WIRE 752 272 672 272
WIRE 1264 272 1264 48
WIRE 1264 272 1184 272
WIRE 960 336 864 336
WIRE 1072 336 960 336
WIRE 960 368 960 336
FLAG 272 336 0
FLAG 272 256 VDD
FLAG 960 -288 VDD
FLAG 960 64 OUT
FLAG 960 368 0
FLAG 416 336 0
FLAG 416 256 A
FLAG 544 336 0
FLAG 544 256 B
FLAG 656 48 A
FLAG 752 -48 B
FLAG 208 -16 B
FLAG 368 -192 VDD
FLAG 368 144 0
FLAG 416 -16 _B
FLAG 752 144 _B
FLAG 1184 144 B
FLAG 1184 -48 _B
FLAG 1280 48 B
SYMBOL voltage 272 240 R0
WINDOW 123 0 0 Left 0
WINDOW 39 0 0 Left 0
WINDOW 3 24 44 Left 2
SYMATTR Value 5
SYMATTR InstName VSupply
SYMBOL PMOSX 832 -192 R0
SYMATTR InstName C2_MP1
SYMBOL NMOSX 832 256 R0
SYMATTR InstName C2_MN1
SYMBOL NMOSX 1104 160 R180
SYMATTR InstName C2_MN2
SYMBOL NMOSX 1104 288 R180
SYMATTR InstName C1_MN3
SYMBOL PMOSX 832 -64 R0
SYMATTR InstName C2_MP2
SYMBOL PMOSX 1104 -160 R180
SYMATTR InstName C1_MP3
SYMBOL PMOSX 1104 -32 R180
SYMATTR InstName C1_MP2
SYMBOL NMOSX 832 128 R0
SYMATTR InstName C1_MN2
SYMBOL voltage 416 240 R0
WINDOW 123 0 0 Left 0
WINDOW 39 0 0 Left 0
WINDOW 3 45 105 Left 2
SYMATTR Value 0
SYMATTR InstName VinA
SYMBOL voltage 544 240 R0
WINDOW 123 0 0 Left 0
WINDOW 39 0 0 Left 0
WINDOW 3 77 105 Left 2
SYMATTR Value 0
SYMATTR InstName VinB
SYMBOL PMOSX 336 -96 R0
SYMATTR InstName C1_MP1
SYMBOL NMOSX 336 32 R0
SYMATTR InstName C1_MN1
TEXT 0 344 Left 2 !.dc VinA 0 5 1m
TEXT 128 -16 Left 2 ;C1 6
TEXT 456 -16 Left 2 ;C1 13/8
TEXT 568 48 Left 2 ;C2 6
TEXT 1312 48 Left 2 ;C1 10
TEXT 704 -112 Left 2 ;C2 13 / C2 2
TEXT 1088 -112 Left 2 ;C1 12 / C1 2
TEXT 1016 -256 Left 2 ;C1 11
TEXT 1088 328 Left 2 ;C1 9
TEXT 720 208 Left 2 ;C1 4 / C2 8
TEXT 1088 208 Left 2 ;C2 4 / C1 12
TEXT 888 24 Left 2 ;C2/C1 1 / 5
TEXT 1168 -568 Left 2 ;Y=NOR(A, B)\nVTC - Característica de transferência de tensão\nInversor: B=0   -->   Y=_A       Gráfico:   VY=f(VA)\n \nVIL e VIH a partir dos pontos com derivada =-1\n(declive da recta tangente =-1)\nGráfico da derivada de V(y):   D( V(y) )     [add trace]\nInclui margens de ruído: NML e NMH\n \nVSP a partir da recta com declive=1 que passa na origem\nGráfico:   VA      [VA=f(VA)]\nponto de cruzamento com a VTC
