Version 4
SHEET 1 1696 680
WIRE 320 -320 304 -320
WIRE 336 -320 320 -320
WIRE 960 -288 944 -288
WIRE 976 -288 960 -288
WIRE 320 -272 320 -320
WIRE 960 -240 960 -288
WIRE 960 -240 864 -240
WIRE 1072 -240 960 -240
WIRE 208 -208 176 -208
WIRE 752 -176 672 -176
WIRE 1264 -176 1184 -176
WIRE 176 -144 176 -208
WIRE 176 -144 160 -144
WIRE 368 -144 320 -144
WIRE 176 -80 176 -144
WIRE 208 -80 176 -80
WIRE 320 16 320 -16
WIRE 672 48 672 -176
WIRE 672 48 656 48
WIRE 864 48 864 16
WIRE 960 48 864 48
WIRE 1072 48 1072 16
WIRE 1072 48 960 48
WIRE 1264 48 1264 -176
WIRE 1280 48 1264 48
WIRE 960 64 960 48
WIRE 960 64 944 64
WIRE 976 64 960 64
WIRE 864 80 864 48
WIRE 1072 80 1072 48
WIRE 672 272 672 48
WIRE 752 272 672 272
WIRE 1264 272 1264 48
WIRE 1264 272 1184 272
WIRE 960 336 864 336
WIRE 1072 336 960 336
WIRE 960 368 960 336
FLAG 64 288 0
FLAG 64 208 VDD
FLAG 960 -288 VDD
FLAG 960 64 OUT
FLAG 960 368 0
FLAG 256 352 0
FLAG 256 272 A
FLAG 256 208 0
FLAG 256 128 B
FLAG 656 48 A
FLAG 752 -48 B
FLAG 160 -144 B
FLAG 320 -320 VDD
FLAG 320 16 0
FLAG 368 -144 _B
FLAG 752 144 _B
FLAG 1184 144 B
FLAG 1184 -48 _B
FLAG 1280 48 B
SYMBOL voltage 64 192 R0
WINDOW 123 0 0 Left 0
WINDOW 39 0 0 Left 0
WINDOW 3 24 44 Left 2
SYMATTR Value 5
SYMATTR InstName VSupply
SYMBOL PMOSX 832 -192 R0
SYMATTR InstName C2_MP1
SYMBOL NMOSX 832 256 R0
SYMATTR InstName C2_MN1
SYMBOL NMOSX 1104 160 R180
SYMATTR InstName C2_MN2
SYMBOL NMOSX 1104 288 R180
SYMATTR InstName C1_MN3
SYMBOL PMOSX 832 -64 R0
SYMATTR InstName C2_MP2
SYMBOL PMOSX 1104 -160 R180
SYMATTR InstName C1_MP3
SYMBOL PMOSX 1104 -32 R180
SYMATTR InstName C1_MP2
SYMBOL NMOSX 832 128 R0
SYMATTR InstName C1_MN2
SYMBOL voltage 256 256 R0
WINDOW 123 0 0 Left 0
WINDOW 39 0 0 Left 0
WINDOW 3 79 98 Left 2
SYMATTR Value PULSE(0 5 0 1p 1p 10n 20n)
SYMATTR InstName VSupply1
SYMBOL voltage 256 112 R0
WINDOW 123 0 0 Left 0
WINDOW 39 0 0 Left 0
WINDOW 3 66 102 Left 2
SYMATTR Value PULSE(0 5 0 1p 1p 20n 40n)
SYMATTR InstName VSupply2
SYMBOL PMOSX 288 -224 R0
SYMATTR InstName C1_MP1
SYMBOL NMOSX 288 -96 R0
SYMATTR InstName C1_MN1
TEXT -8 360 Left 2 !.tran 0 60n 20n
TEXT 80 -144 Left 2 ;C1 6
TEXT 400 -144 Left 2 ;C1 13/8
TEXT 568 48 Left 2 ;C2 6
TEXT 1312 48 Left 2 ;C1 10
TEXT 704 -112 Left 2 ;C2 13 / C2 2
TEXT 1088 -112 Left 2 ;C1 12 / C1 2
TEXT 1016 -256 Left 2 ;C1 11
TEXT 1088 328 Left 2 ;C1 9
TEXT 720 208 Left 2 ;C1 4 / C2 8
TEXT 1088 208 Left 2 ;C2 4 / C1 12
TEXT 888 24 Left 2 ;C2/C1 1 / 5
TEXT 1160 -280 Left 2 ;Resposta temporal (transitório),  Y=NOR(A,B)
