Version 4
SHEET 1 2112 680
WIRE 352 -320 336 -320
WIRE 368 -320 352 -320
WIRE 960 -288 944 -288
WIRE 976 -288 960 -288
WIRE 352 -272 352 -320
WIRE 960 -240 960 -288
WIRE 960 -240 864 -240
WIRE 1072 -240 960 -240
WIRE 240 -208 208 -208
WIRE 752 -176 672 -176
WIRE 1264 -176 1184 -176
WIRE 208 -144 208 -208
WIRE 208 -144 192 -144
WIRE 400 -144 352 -144
WIRE 208 -80 208 -144
WIRE 240 -80 208 -80
WIRE 352 16 352 -16
WIRE 672 48 672 -176
WIRE 672 48 656 48
WIRE 864 48 864 16
WIRE 960 48 864 48
WIRE 1072 48 1072 16
WIRE 1072 48 960 48
WIRE 1264 48 1264 -176
WIRE 1280 48 1264 48
WIRE 960 64 960 48
WIRE 960 64 944 64
WIRE 976 64 960 64
WIRE 864 80 864 48
WIRE 1072 80 1072 48
WIRE 672 272 672 48
WIRE 752 272 672 272
WIRE 1264 272 1264 48
WIRE 1264 272 1184 272
WIRE 960 336 864 336
WIRE 1072 336 960 336
WIRE 960 368 960 336
FLAG 400 192 0
FLAG 400 112 VDD
FLAG 960 -288 VDD
FLAG 960 64 OUT
FLAG 960 368 0
FLAG 400 336 0
FLAG 400 256 A
FLAG 240 192 0
FLAG 240 112 B
FLAG 656 48 A
FLAG 752 -48 B
FLAG 192 -144 B
FLAG 352 -320 VDD
FLAG 352 16 0
FLAG 400 -144 _B
FLAG 752 144 _B
FLAG 1184 144 B
FLAG 1184 -48 _B
FLAG 1280 48 B
SYMBOL voltage 400 96 R0
WINDOW 123 0 0 Left 0
WINDOW 39 0 0 Left 0
WINDOW 3 24 44 Left 2
SYMATTR Value 5
SYMATTR InstName VSupply
SYMBOL PMOSX 832 -192 R0
SYMATTR InstName C2_MP1
SYMBOL NMOSX 832 256 R0
SYMATTR InstName C2_MN1
SYMBOL NMOSX 1104 160 R180
SYMATTR InstName C2_MN2
SYMBOL NMOSX 1104 288 R180
SYMATTR InstName C1_MN3
SYMBOL PMOSX 832 -64 R0
SYMATTR InstName C2_MP2
SYMBOL PMOSX 1104 -160 R180
SYMATTR InstName C1_MP3
SYMBOL PMOSX 1104 -32 R180
SYMATTR InstName C1_MP2
SYMBOL NMOSX 832 128 R0
SYMATTR InstName C1_MN2
SYMBOL voltage 400 240 R0
WINDOW 123 0 0 Left 0
WINDOW 39 0 0 Left 0
WINDOW 3 45 105 Left 2
SYMATTR Value PULSE(0 5 0 1p 1p 10n 20n)
SYMATTR InstName VinA
SYMBOL voltage 240 96 R0
WINDOW 123 0 0 Left 0
WINDOW 39 0 0 Left 0
WINDOW 3 77 105 Left 2
SYMATTR Value 0
SYMATTR InstName VinB
SYMBOL PMOSX 320 -224 R0
SYMATTR InstName C1_MP1
SYMBOL NMOSX 320 -96 R0
SYMATTR InstName C1_MN1
TEXT 96 344 Left 2 !.tran 0 80n 20n .1u
TEXT 112 -144 Left 2 ;C1 6
TEXT 432 -144 Left 2 ;C1 13/8
TEXT 568 48 Left 2 ;C2 6
TEXT 1312 48 Left 2 ;C1 10
TEXT 704 -112 Left 2 ;C2 13 / C2 2
TEXT 1088 -112 Left 2 ;C1 12 / C1 2
TEXT 1016 -256 Left 2 ;C1 11
TEXT 1088 328 Left 2 ;C1 9
TEXT 720 208 Left 2 ;C1 4 / C2 8
TEXT 1088 208 Left 2 ;C2 4 / C1 12
TEXT 888 24 Left 2 ;C2/C1 1 / 5
TEXT 1176 -472 Left 2 ;Y=NOR(A, B)\nResposta temporal do Inversor\nInversor: B=0  -->   Y=_A\nGráfico:   Vin(t)=Va(t)  e  Vout(t)=Vy(t)\nInclui gráficos com as curvas da corrente e da potência da fonte de alimentação.\nValores médios: CTRL-click esquerdo no nome do gráfico.\nInclui tempos de atraso/propagação:\ntPLH - transição na entrada a t=30 ns / saída passa em VDD/2 a t= 34,36 ns\ntPHL - transição na entrada a t=40 ns / saída passa em VDD/2 a t= 41,44 ns
