Version 4
SHEET 1 1656 680
WIRE 384 -288 368 -288
WIRE 400 -288 384 -288
WIRE 960 -288 944 -288
WIRE 976 -288 960 -288
WIRE 384 -240 384 -288
WIRE 960 -240 960 -288
WIRE 960 -240 864 -240
WIRE 1072 -240 960 -240
WIRE 272 -176 240 -176
WIRE 752 -176 672 -176
WIRE 1264 -176 1184 -176
WIRE 240 -112 240 -176
WIRE 240 -112 224 -112
WIRE 432 -112 384 -112
WIRE 240 -48 240 -112
WIRE 272 -48 240 -48
WIRE 384 48 384 16
WIRE 672 48 672 -176
WIRE 672 48 656 48
WIRE 864 48 864 16
WIRE 960 48 864 48
WIRE 1072 48 1072 16
WIRE 1072 48 960 48
WIRE 1264 48 1264 -176
WIRE 1280 48 1264 48
WIRE 960 64 960 48
WIRE 960 64 944 64
WIRE 976 64 960 64
WIRE 864 80 864 48
WIRE 1072 80 1072 48
WIRE 672 272 672 48
WIRE 752 272 672 272
WIRE 1264 272 1264 48
WIRE 1264 272 1184 272
WIRE 960 336 864 336
WIRE 1072 336 960 336
WIRE 960 368 960 336
FLAG 48 272 0
FLAG 48 192 VDD
FLAG 960 -288 VDD
FLAG 960 64 OUT
FLAG 960 368 0
FLAG 272 272 0
FLAG 272 192 A
FLAG 512 272 0
FLAG 512 192 B
FLAG 656 48 A
FLAG 752 -48 B
FLAG 224 -112 B
FLAG 384 -288 VDD
FLAG 384 48 0
FLAG 432 -112 _B
FLAG 752 144 _B
FLAG 1184 144 B
FLAG 1184 -48 _B
FLAG 1280 48 B
SYMBOL voltage 48 176 R0
WINDOW 123 0 0 Left 0
WINDOW 39 0 0 Left 0
WINDOW 3 24 44 Left 2
SYMATTR Value 5
SYMATTR InstName VSupply
SYMBOL PMOSX 832 -192 R0
SYMATTR InstName C2_MP1
SYMBOL NMOSX 832 256 R0
SYMATTR InstName C2_MN1
SYMBOL NMOSX 1104 160 R180
SYMATTR InstName C2_MN2
SYMBOL NMOSX 1104 288 R180
SYMATTR InstName C1_MN3
SYMBOL PMOSX 832 -64 R0
SYMATTR InstName C2_MP2
SYMBOL PMOSX 1104 -160 R180
SYMATTR InstName C1_MP3
SYMBOL PMOSX 1104 -32 R180
SYMATTR InstName C1_MP2
SYMBOL NMOSX 832 128 R0
SYMATTR InstName C1_MN2
SYMBOL voltage 272 176 R0
WINDOW 123 0 0 Left 0
WINDOW 39 0 0 Left 0
WINDOW 3 79 98 Left 2
SYMATTR Value 0
SYMATTR InstName VSupply1
SYMBOL voltage 512 176 R0
WINDOW 123 0 0 Left 0
WINDOW 39 0 0 Left 0
WINDOW 3 -190 198 Left 2
SYMATTR Value PULSE(0 5 0 1p 1p 10n 20n)
SYMATTR InstName VSupply2
SYMBOL PMOSX 352 -192 R0
SYMATTR InstName C1_MP1
SYMBOL NMOSX 352 -64 R0
SYMATTR InstName C1_MN1
TEXT 32 368 Left 2 !.tran 0 60n 20n
TEXT 144 -112 Left 2 ;C1 6
TEXT 472 -112 Left 2 ;C1 13/8
TEXT 568 48 Left 2 ;C2 6
TEXT 1312 48 Left 2 ;C1 10
TEXT 704 -112 Left 2 ;C2 13 / C2 2
TEXT 1088 -112 Left 2 ;C1 12 / C1 2
TEXT 1016 -256 Left 2 ;C1 11
TEXT 1088 328 Left 2 ;C1 9
TEXT 720 208 Left 2 ;C1 4 / C2 8
TEXT 1088 208 Left 2 ;C2 4 / C1 12
TEXT 888 24 Left 2 ;C2/C1 1 / 5
TEXT 1120 -304 Left 2 ;Resposta temporal (transitório),  Y=NOR(A,B)\nA=0   -->   Y=_B
