Version 4
SHEET 1 1712 680
WIRE 480 -256 464 -256
WIRE 496 -256 480 -256
WIRE 960 -240 944 -240
WIRE 976 -240 960 -240
WIRE 480 -208 480 -256
WIRE 960 -192 960 -240
WIRE 960 -192 864 -192
WIRE 1072 -192 960 -192
WIRE 368 -144 336 -144
WIRE 752 -128 672 -128
WIRE 1264 -128 1184 -128
WIRE 336 -80 336 -144
WIRE 336 -80 320 -80
WIRE 528 -80 480 -80
WIRE 864 -48 864 -64
WIRE 1072 -48 1072 -64
WIRE 864 -32 864 -48
WIRE 1072 -32 1072 -48
WIRE 336 -16 336 -80
WIRE 368 -16 336 -16
WIRE 480 80 480 48
WIRE 672 144 672 -128
WIRE 672 144 656 144
WIRE 864 144 864 96
WIRE 960 144 864 144
WIRE 1072 144 1072 96
WIRE 1072 144 960 144
WIRE 1264 144 1264 -128
WIRE 1280 144 1264 144
WIRE 960 160 960 144
WIRE 960 160 944 160
WIRE 976 160 960 160
WIRE 864 192 864 144
WIRE 1072 192 1072 144
WIRE 928 272 928 240
WIRE 1024 272 1024 240
WIRE 864 336 864 320
WIRE 1072 336 1072 320
WIRE 864 352 864 336
WIRE 1072 352 1072 336
WIRE 672 416 672 144
WIRE 752 416 672 416
WIRE 928 416 928 384
WIRE 1264 416 1264 144
WIRE 1264 416 1184 416
WIRE 1040 432 1040 400
WIRE 960 480 864 480
WIRE 1072 480 960 480
WIRE 960 512 960 480
FLAG 112 240 0
FLAG 112 160 VDD
FLAG 960 -240 VDD
FLAG 960 160 OUT
FLAG 960 512 0
FLAG 112 -112 0
FLAG 112 -192 A
FLAG 112 48 0
FLAG 112 -32 B
FLAG 656 144 A
FLAG 752 32 B
FLAG 320 -80 B
FLAG 480 -256 VDD
FLAG 480 80 0
FLAG 528 -80 _B
FLAG 752 256 _B
FLAG 1184 256 B
FLAG 1184 32 _B
FLAG 1280 144 B
FLAG 864 -48 p1
FLAG 1072 -48 p2
FLAG 864 336 n1
FLAG 1072 336 n2
DATAFLAG 400 -192 "V(b)-V(vdd)"
DATAFLAG 400 32 "V(b)-V(0)"
DATAFLAG 576 -128 "V(_b)-V(vdd)"
DATAFLAG 576 0 "V(_b)-V(0)"
DATAFLAG 912 -112 "V(p1)-V(vdd)"
DATAFLAG 752 304 "round((V(_b)-V(n1))*100)/100"
DATAFLAG 816 496 "V(a)-V(0)"
DATAFLAG 1184 304 "round((V(b)-V(n2))*100)/100"
DATAFLAG 1120 -176 "V(b)-V(vdd)"
DATAFLAG 1168 0 "V(_b)-V(p2)"
DATAFLAG 768 0 "V(b)-V(p1)"
DATAFLAG 1120 496 "V(b)-V(0)"
DATAFLAG 912 48 "V(out)-V(p1)"
DATAFLAG 1024 48 "V(out)-V(p2)"
DATAFLAG 1024 -112 "V(p2)-V(vdd)"
DATAFLAG 928 256 "round((V(out)-V(n1))*100)/100"
DATAFLAG 1024 256 "round((V(out)-V(n2))*100)/100"
DATAFLAG 1040 416 "round((V(n2)-V(0))*100)/100"
DATAFLAG 928 400 "round((V(n1)-V(0))*100)/100"
DATAFLAG 816 -176 "V(a)-V(vdd)"
DATAFLAG 960 144 ""
SYMBOL voltage 112 144 R0
WINDOW 123 0 0 Left 0
WINDOW 39 0 0 Left 0
WINDOW 3 38 46 Left 2
SYMATTR Value 5
SYMATTR InstName VSupply
SYMBOL PMOSX 832 -144 R0
WINDOW 0 24 25 Bottom 1
SYMATTR InstName C2_MP1
SYMBOL NMOSX 832 400 R0
WINDOW 0 20 26 Bottom 1
SYMATTR InstName C2_MN1
SYMBOL NMOSX 1104 272 R180
WINDOW 0 22 26 Bottom 1
SYMATTR InstName C2_MN2
SYMBOL NMOSX 1104 432 R180
WINDOW 0 22 25 Bottom 1
SYMATTR InstName C1_MN3
SYMBOL PMOSX 832 16 R0
WINDOW 0 22 24 Bottom 1
SYMATTR InstName C2_MP2
SYMBOL PMOSX 1104 -112 R180
WINDOW 0 23 25 Bottom 1
SYMATTR InstName C1_MP3
SYMBOL PMOSX 1104 48 R180
WINDOW 0 23 25 Bottom 1
SYMATTR InstName C1_MP2
SYMBOL NMOSX 832 240 R0
WINDOW 0 22 25 Bottom 1
SYMATTR InstName C1_MN2
SYMBOL voltage 112 -208 R0
WINDOW 123 0 0 Left 0
WINDOW 39 0 0 Left 0
WINDOW 3 48 76 Left 2
SYMATTR Value 0
SYMATTR InstName VSupply1
SYMBOL voltage 112 -48 R0
WINDOW 123 0 0 Left 0
WINDOW 39 0 0 Left 0
WINDOW 3 40 72 Left 2
SYMATTR Value 0
SYMATTR InstName VSupply2
SYMBOL PMOSX 448 -160 R0
SYMATTR InstName C1_MP1
SYMBOL NMOSX 448 -32 R0
SYMATTR InstName C1_MN1
TEXT 120 304 Left 2 !.op 80ms
